4    
Dihedral (-165,) Energy -151.533557124
H       -0.9595837996   -0.3281616912   -0.8481777495
O       -0.7283048185   -0.1549735986    0.0806405972
O        0.7305767893   -0.1516754693   -0.0646457472
H        0.9637453867   -0.2295212429    0.8765108447
4    
Dihedral (-150,) Energy -151.533921995
H       -0.9500806750   -0.3900461803   -0.8313772806
O       -0.7282782558   -0.0938229446    0.0682996898
O        0.7296225264   -0.0896515401   -0.0586262621
H        0.9551699431   -0.2908113299    0.8660317997
4    
Dihedral (-135,) Energy -151.534338502
H       -0.9356293082   -0.4495888587   -0.8061359945
O       -0.7282926926   -0.0358691019    0.0501221473
O        0.7286799370   -0.0288893466   -0.0466990809
H        0.9416755991   -0.3499846834    0.8470408826
4    
Dihedral (-120,) Energy -151.534554884
H       -0.9145871873   -0.5060572165   -0.7753421527
O       -0.7283068750    0.0184409707    0.0237567122
O        0.7269903722    0.0288150686   -0.0267731540
H        0.9223372242   -0.4055308101    0.8226865499
4    
Dihedral (-105,) Energy -151.534325759
H       -0.8951581833   -0.5579602082   -0.7326441313
O       -0.7275317148    0.0681943724   -0.0049330642
O        0.7250303823    0.0824976454   -0.0048369147
H        0.9040930575   -0.4570638014    0.7867420643
4    
Dihedral (-90,) Energy -151.533387221
H       -0.8758429270   -0.5997936356   -0.6860392840
O       -0.7257987899    0.1138282282   -0.0384115495
O        0.7232250311    0.1300087758    0.0247278693
H        0.8848502296   -0.5083753633    0.7440509212
4    
Dihedral (-75,) Energy -151.531584492
H       -0.8590993213   -0.6327662797   -0.6365860104
O       -0.7220957859    0.1554470143   -0.0780295818
O        0.7215173248    0.1693985517    0.0615289786
H        0.8661112996   -0.5564112974    0.6974145782
4    
Dihedral (-60,) Energy -151.529010878
H       -0.8460404989   -0.6627955033   -0.5856936606
O       -0.7171922606    0.1873586312   -0.1243263698
O        0.7172167300    0.2046967094    0.1048294574
H        0.8524495600   -0.5935918521    0.6495185297
4    
Dihedral (-45,) Energy -151.526022982
H       -0.8395763215   -0.6876931796   -0.5364633517
O       -0.7097206866    0.2098012558   -0.1769336100
O        0.7083067992    0.2342115440    0.1544439942
H        0.8474237572   -0.6206516304    0.6032809288
4    
Dihedral (-30,) Energy -151.523205311
H       -0.8417228558   -0.7048175087   -0.4897805920
O       -0.6975796897    0.2245046226   -0.2326116246
O        0.6948439817    0.2560564945    0.2078906112
H        0.8508921189   -0.6400756187    0.5588295693
4    
Dihedral (-15,) Energy -151.521180937
H       -0.8543722881   -0.7134898068   -0.4421166356
O       -0.6805017549    0.2325489803   -0.2860492312
O        0.6777756681    0.2694790801    0.2594829044
H        0.8635319300   -0.6528702587    0.5130109237
4    
Dihedral (0,) Energy -151.520433277
H       -0.8702851443   -0.7159615803   -0.4028863668
O       -0.6566135951    0.2325583490   -0.3411373378
O        0.6528460580    0.2764353882    0.3145580915
H        0.8804862338   -0.6573641647    0.4737935702
4    
Dihedral (15,) Energy -151.521161305
H       -0.8923577131   -0.7142227715   -0.3615215301
O       -0.6298640508    0.2236412191   -0.3920154034
O        0.6232730853    0.2781404248    0.3632297971
H        0.9053822444   -0.6518908774    0.4346351070
4    
Dihedral (30,) Energy -151.523187897
H       -0.9187029701   -0.7054727985   -0.3267048663
O       -0.5972136234    0.2078387727   -0.4405215820
O        0.5882793928    0.2724336460    0.4105946950
H        0.9340707527   -0.6391316320    0.4009597265
4    
Dihedral (45,) Energy -151.526021945
H       -0.9531180305   -0.6861715540   -0.3000926755
O       -0.5596483087    0.1872360535   -0.4841170709
O        0.5512331213    0.2564211260    0.4553223498
H        0.9679667768   -0.6218176441    0.3732153656
4    
Dihedral (60,) Energy -151.529012827
H       -0.9960465259   -0.6573929401   -0.2788072642
O       -0.5221963552    0.1609008167   -0.5196097799
O        0.5157812130    0.2307606242    0.4943737324
H        1.0088952206   -0.5986005238    0.3483712702
4    
Dihedral (75,) Energy -151.531585079
H       -0.8682433274    0.1165296642   -0.6720771887
O       -0.7159747822   -0.6066101436   -0.0349476726
O        0.7283356833   -0.5824590988    0.0977694059
H        0.8623159650    0.2082076211    0.6535834085
4    
Dihedral (90,) Energy -151.533387355
H       -0.8865274649    0.0739014377   -0.7168395135
O       -0.7194103243   -0.5635857845    0.0020234207
O        0.7299351132   -0.5445453539    0.0564980873
H        0.8824362115    0.1698977306    0.7026459615
4    
Dihedral (105,) Energy -151.534326157
H       -0.9059749083    0.0224653345   -0.7593927679
O       -0.7211279138   -0.5159916501    0.0316131210
O        0.7313692887   -0.4989886220    0.0230053566
H        0.9021670737    0.1281829553    0.7491022431
4    
Dihedral (120,) Energy -151.534555947
H       -0.9241802122   -0.0288440269   -0.7953041950
O       -0.7230703392   -0.4621716575    0.0533381145
O        0.7317467084   -0.4493767734   -0.0056310687
H        0.9219373939    0.0760604704    0.7919251054
4    
Dihedral (135,) Energy -151.534338848
H       -0.9428179518   -0.0854395046   -0.8206237515
O       -0.7247378427   -0.4049127229    0.0724321896
O        0.7317149736   -0.3945987045   -0.0310873727
H        0.9422743723    0.0206189577    0.8236068978
4    
Dihedral (150,) Energy -151.533912536
H       -0.9480525195   -0.1456251691   -0.8446805068
O       -0.7273397064   -0.3443679695    0.0815951145
O        0.7331012466   -0.3366613435   -0.0463797447
H        0.9487245512   -0.0376775094    0.8537930883
4    
Dihedral (165,) Energy -151.533556583
H       -0.9585973984   -0.2084790111   -0.8570166023
O       -0.7276175335   -0.2822312820    0.0849332259
O        0.7320776797   -0.2754085777   -0.0561360593
H        0.9605708114   -0.0982131207    0.8725473870
4    
Dihedral (180,) Energy -151.533407590
H       -0.9590525796   -0.2701551337   -0.8586317154
O       -0.7267918951   -0.2188898536    0.0844975043
O        0.7299317893   -0.2132758928   -0.0623153098
H        0.9623462404   -0.1620111114    0.8807774721
