4    
Dihedral (-165,) Energy -151.173833467
H       -0.9430723599   -0.3300434239   -0.8493792817
O       -0.7285283173   -0.1551930488    0.0793422147
O        0.7308142082   -0.1516797998   -0.0636034977
H        0.9472201690   -0.2274156275    0.8779685647
4    
Dihedral (-150,) Energy -151.174164298
H       -0.9341115185   -0.3907295974   -0.8318260418
O       -0.7284568775   -0.0941443127    0.0675504377
O        0.7298289307   -0.0897529396   -0.0581181880
H        0.9391731651   -0.2897050503    0.8667217920
4    
Dihedral (-135,) Energy -151.174552678
H       -0.9205314093   -0.4487092957   -0.8056600209
O       -0.7285924290   -0.0356186825    0.0500817663
O        0.7290837881   -0.0297519395   -0.0467278276
H        0.9264736501   -0.3502519823    0.8466339821
4    
Dihedral (-120,) Energy -151.174772630
H       -0.9028361528   -0.5029194676   -0.7713800892
O       -0.7279406224    0.0192983040    0.0269295747
O        0.7276012656    0.0272297934   -0.0293138787
H        0.9096091094   -0.4079405297    0.8180922931
4    
Dihedral (-105,) Energy -151.174558806
H       -0.8830091307   -0.5524717505   -0.7304722167
O       -0.7272124923    0.0696090629   -0.0021722410
O        0.7261046233    0.0802366247   -0.0055106262
H        0.8905505998   -0.4617058370    0.7824829838
4    
Dihedral (-90,) Energy -151.173673555
H       -0.8622515234   -0.5965274641   -0.6840498314
O       -0.7256792215    0.1144221700   -0.0370548308
O        0.7238807992    0.1283551146    0.0246062690
H        0.8704835458   -0.5105817206    0.7408263932
4    
Dihedral (-75,) Energy -151.171999294
H       -0.8430499385   -0.6343527834   -0.6339125173
O       -0.7230058873    0.1528876700   -0.0778771008
O        0.7206067293    0.1707507655    0.0612818332
H        0.8518826962   -0.5536175521    0.6948358850
4    
Dihedral (-60,) Energy -151.169620594
H       -0.8283122400   -0.6653163610   -0.5821606355
O       -0.7181959954    0.1842586867   -0.1245165910
O        0.7152969397    0.2066531662    0.1044714071
H        0.8376448959   -0.5899273920    0.6465339195
4    
Dihedral (-45,) Energy -151.166860916
H       -0.8208796753   -0.6889595958   -0.5310251805
O       -0.7099855881    0.2079910149   -0.1761806145
O        0.7066963913    0.2354214500    0.1534430637
H        0.8306024723   -0.6187847691    0.5980908313
4    
Dihedral (-30,) Energy -151.164244441
H       -0.8223227269   -0.7051058019   -0.4822656739
O       -0.6971890927    0.2239049256   -0.2311145241
O        0.6936236621    0.2566797225    0.2064707291
H        0.8323217574   -0.6398107461    0.5512375689
4    
Dihedral (-15,) Energy -151.162361842
H       -0.8323492448   -0.7138512170   -0.4367173010
O       -0.6788971059    0.2321853086   -0.2869269872
O        0.6751686724    0.2703537527    0.2611573576
H        0.8425113782   -0.6530197442    0.5068150307
4    
Dihedral (0,) Energy -151.161676010
H       -0.8491188360   -0.7153512261   -0.3972145270
O       -0.6540451455    0.2331334719   -0.3430700633
O        0.6503089380    0.2764700036    0.3171236499
H        0.8592888435   -0.6585840493    0.4674890405
4    
Dihedral (15,) Energy -151.162361843
H       -0.8720839838   -0.7100115431   -0.3582442469
O       -0.6245002903    0.2272045068   -0.3944341361
O        0.6208229429    0.2753783593    0.3688501848
H        0.8821951313   -0.6569030229    0.4281561982
4    
Dihedral (30,) Energy -151.164244440
H       -0.9024389961   -0.6974789607   -0.3239807816
O       -0.5907738165    0.2140465878   -0.4414252525
O        0.5872584553    0.2665823377    0.4169628625
H        0.9123880574   -0.6474815647    0.3927712718
4    
Dihedral (45,) Energy -151.166860915
H       -0.9401918293   -0.6776534519   -0.2952915125
O       -0.5547790293    0.1935552839   -0.4828939627
O        0.5515379411    0.2498956260    0.4603306681
H        0.9498667175   -0.6301291579    0.3621829072
4    
Dihedral (60,) Energy -151.169620600
H       -0.9848944399   -0.6504989458   -0.2729551931
O       -0.5189457438    0.1656795065   -0.5180694263
O        0.5160921580    0.2252247949    0.4981902452
H        0.9941818256   -0.6047371558    0.3371624741
4    
Dihedral (75,) Energy -151.171999294
H       -0.8477038724    0.1186610195   -0.6752345210
O       -0.7181448995   -0.6017942576   -0.0368833878
O        0.7254432085   -0.5859148431    0.1027695840
H        0.8468394632    0.2047166812    0.6536764247
4    
Dihedral (90,) Energy -151.173673555
H       -0.8663720395    0.0753615926   -0.7209494962
O       -0.7213490594   -0.5591523675   -0.0004883016
O        0.7282106325   -0.5477235134    0.0616968201
H        0.8659443665    0.1671828883    0.7040690776
4    
Dihedral (105,) Energy -151.174558807
H       -0.8865214341    0.0262531839   -0.7622931427
O       -0.7234865813   -0.5108324859    0.0293100850
O        0.7298463133   -0.5031431383    0.0265224326
H        0.8865956019    0.1233910403    0.7507887251
4    
Dihedral (120,) Energy -151.174772712
H       -0.9058397541   -0.0277116027   -0.7976426062
O       -0.7250745725   -0.4576729417    0.0526964308
O        0.7308764535   -0.4530220435   -0.0028406198
H        0.9064717732    0.0740750880    0.7921148953
4    
Dihedral (135,) Energy -151.174552527
H       -0.9227228945   -0.0855231441   -0.8258300765
O       -0.7265506914   -0.4005987872    0.0698565312
O        0.7317486124   -0.3982956463   -0.0264704343
H        0.9239588735    0.0200859775    0.8267720797
4    
Dihedral (150,) Energy -151.174164446
H       -0.9355360047   -0.1461857459   -0.8455296412
O       -0.7271704450   -0.3405124336    0.0808530362
O        0.7317281858   -0.3398755992   -0.0443246900
H        0.9374120640   -0.0377579213    0.8533293949
4    
Dihedral (165,) Energy -151.173833384
H       -0.9437564314   -0.2085480868   -0.8563555426
O       -0.7279736297   -0.2785376226    0.0858394211
O        0.7318621774   -0.2788826665   -0.0564261388
H        0.9463015836   -0.0983633240    0.8712702603
4    
Dihedral (180,) Energy -151.173706135
H       -0.9456095598   -0.2714492442   -0.8573203744
O       -0.7281809813   -0.2157470306    0.0854118681
O        0.7311916550   -0.2164157325   -0.0631742689
H        0.9490325860   -0.1607197928    0.8794107752
