4    
Dihedral (-165,) Energy -151.173833467
H       -0.9430723599   -0.3300434239   -0.8493792817
O       -0.7285283173   -0.1551930488    0.0793422147
O        0.7308142082   -0.1516797998   -0.0636034977
H        0.9472201690   -0.2274156275    0.8779685647
4    
Dihedral (-150,) Energy -151.174164298
H       -0.9341115185   -0.3907295974   -0.8318260418
O       -0.7284568775   -0.0941443127    0.0675504377
O        0.7298289307   -0.0897529396   -0.0581181880
H        0.9391731651   -0.2897050503    0.8667217920
4    
Dihedral (-135,) Energy -151.174552678
H       -0.9205314093   -0.4487092957   -0.8056600209
O       -0.7285924290   -0.0356186825    0.0500817663
O        0.7290837881   -0.0297519395   -0.0467278276
H        0.9264736501   -0.3502519823    0.8466339821
4    
Dihedral (-120,) Energy -151.174772630
H       -0.9028361528   -0.5029194676   -0.7713800892
O       -0.7279406224    0.0192983040    0.0269295747
O        0.7276012656    0.0272297934   -0.0293138787
H        0.9096091094   -0.4079405297    0.8180922931
4    
Dihedral (-105,) Energy -151.174558806
H       -0.8830091142   -0.5524717525   -0.7304722101
O       -0.7272125818    0.0696090694   -0.0021722481
O        0.7261046565    0.0802366189   -0.0055106347
H        0.8905506396   -0.4617058358    0.7824829929
4    
Dihedral (-90,) Energy -151.173673555
H       -0.8622515416   -0.5965274584   -0.6840498338
O       -0.7256792042    0.1144221642   -0.0370548353
O        0.7238807980    0.1283551107    0.0246062787
H        0.8704835478   -0.5105817165    0.7408263902
4    
Dihedral (-75,) Energy -151.171999294
H       -0.8430499385   -0.6343527834   -0.6339125173
O       -0.7230058873    0.1528876700   -0.0778771008
O        0.7206067293    0.1707507655    0.0612818332
H        0.8518826962   -0.5536175521    0.6948358850
4    
Dihedral (-60,) Energy -151.169620594
H       -0.8283122400   -0.6653163610   -0.5821606355
O       -0.7181959954    0.1842586867   -0.1245165910
O        0.7152969397    0.2066531662    0.1044714071
H        0.8376448959   -0.5899273920    0.6465339195
4    
Dihedral (-45,) Energy -151.166860916
H       -0.8208796718   -0.6889595945   -0.5310251894
O       -0.7099855860    0.2079910153   -0.1761806213
O        0.7066963896    0.2354214491    0.1534430712
H        0.8306024683   -0.6187847699    0.5980908396
4    
Dihedral (-30,) Energy -151.164244439
H       -0.8223227887   -0.7051058513   -0.4822657097
O       -0.6971890453    0.2239049356   -0.2311145018
O        0.6936237071    0.2566796837    0.2064707559
H        0.8323217270   -0.6398107680    0.5512375555
4    
Dihedral (-15,) Energy -151.162361842
H       -0.8323492209   -0.7138512487   -0.4367172792
O       -0.6788971439    0.2321853583   -0.2869269858
O        0.6751686181    0.2703536185    0.2611573900
H        0.8425113468   -0.6530198281    0.5068150749
4    
Dihedral (0,) Energy -151.161676170
H       -0.8495665640   -0.7154441776   -0.3944944478
O       -0.6548849000    0.2332008633   -0.3413947246
O        0.6511026681    0.2765794185    0.3152538020
H        0.8597823958   -0.6586681042    0.4649635703
4    
Dihedral (15,) Energy -151.162361844
H       -0.8731236017   -0.7100165771   -0.3557981843
O       -0.6255327066    0.2271625815   -0.3928398905
O        0.6218040831    0.2754006392    0.3670690670
H        0.8832858253   -0.6568786435    0.4258973079
4    
Dihedral (30,) Energy -151.164244439
H       -0.9033734823   -0.6974782120   -0.3214508427
O       -0.5919486625    0.2139955224   -0.4399305171
O        0.5883830617    0.2666231404    0.4152850493
H        0.9133726832   -0.6474724509    0.3904246105
4    
Dihedral (45,) Energy -151.166860913
H       -0.9410473344   -0.6776433844   -0.2926646203
O       -0.5560672856    0.1934921765   -0.4814914353
O        0.5527779805    0.2499492198    0.4587525402
H        0.9507702394   -0.6301301119    0.3597318153
4    
Dihedral (60,) Energy -151.169620601
H       -0.9856877242   -0.6504802339   -0.2702145804
O       -0.5203306989    0.1656056625   -0.5167566536
O        0.5174318665    0.2252896610    0.4967124505
H        0.9950201564   -0.6047471897    0.3345870836
4    
Dihedral (75,) Energy -151.171999316
H       -0.7886318127    0.1134827136   -0.7449692167
O       -0.7248831952   -0.5828878479   -0.0709494623
O        0.7055217625   -0.6020723767    0.1671247983
H        0.8144269456    0.2071458110    0.6931219808
4    
Dihedral (90,) Energy -151.173673555
H       -0.8663720290    0.0753614097   -0.7209494973
O       -0.7213491377   -0.5591524030   -0.0004883378
O        0.7282105313   -0.5477235340    0.0616969024
H        0.8659443353    0.1671828273    0.7040690326
4    
Dihedral (105,) Energy -151.174558806
H       -0.8865216114    0.0262530535   -0.7622931827
O       -0.7234865136   -0.5108324973    0.0293101188
O        0.7298463049   -0.5031432843    0.0265224653
H        0.8865955198    0.1233910281    0.7507886986
4    
Dihedral (120,) Energy -151.174772712
H       -0.9058397646   -0.0277117230   -0.7976425826
O       -0.7250745986   -0.4576729683    0.0526964502
O        0.7308764421   -0.4530220838   -0.0028405897
H        0.9064717210    0.0740750751    0.7921148221
4    
Dihedral (135,) Energy -151.174552527
H       -0.9227229573   -0.0855231868   -0.8258301230
O       -0.7265506625   -0.4005987976    0.0698565403
O        0.7317486378   -0.3982956924   -0.0264704065
H        0.9239588821    0.0200859769    0.8267720892
4    
Dihedral (150,) Energy -151.174164445
H       -0.9355360037   -0.1461857514   -0.8455296426
O       -0.7271704449   -0.3405124347    0.0808530357
O        0.7317281858   -0.3398755981   -0.0443246884
H        0.9374120628   -0.0377579158    0.8533293953
4    
Dihedral (165,) Energy -151.173833384
H       -0.9437564314   -0.2085480868   -0.8563555426
O       -0.7279736297   -0.2785376226    0.0858394211
O        0.7318621774   -0.2788826665   -0.0564261388
H        0.9463015836   -0.0983633240    0.8712702603
4    
Dihedral (180,) Energy -151.173706135
H       -0.9456095598   -0.2714492442   -0.8573203744
O       -0.7281809813   -0.2157470306    0.0854118681
O        0.7311916550   -0.2164157325   -0.0631742689
H        0.9490325860   -0.1607197928    0.8794107752
