4    
Dihedral (-165,) Energy -151.173833467
H       -0.9430719668   -0.3300434075   -0.8493790445
O       -0.7285280658   -0.1551930775    0.0793421271
O        0.7308138546   -0.1516798141   -0.0636035240
H        0.9472197784   -0.2274156008    0.8779682415
4    
Dihedral (-150,) Energy -151.174164298
H       -0.9341111254   -0.3907295380   -0.8318257558
O       -0.7284566213   -0.0941443578    0.0675503504
O        0.7298285982   -0.0897529995   -0.0581181921
H        0.9391727485   -0.2897050048    0.8667213976
4    
Dihedral (-135,) Energy -151.174552678
H       -0.9205310059   -0.4487092250   -0.8056596751
O       -0.7285921829   -0.0356187718    0.0500817498
O        0.7290834992   -0.0297519987   -0.0467278231
H        0.9264732897   -0.3502519044    0.8466336484
4    
Dihedral (-120,) Energy -151.174772630
H       -0.9028357360   -0.5029193539   -0.7713797424
O       -0.7279403738    0.0192982074    0.0269296011
O        0.7276010311    0.0272296767   -0.0293138557
H        0.9096086786   -0.4079404302    0.8180918970
4    
Dihedral (-105,) Energy -151.174558806
H       -0.8830087812   -0.5524716642   -0.7304719309
O       -0.7272122117    0.0696089176   -0.0021722101
O        0.7261043537    0.0802365476   -0.0055106179
H        0.8905502391   -0.4617057011    0.7824826590
4    
Dihedral (-90,) Energy -151.173673555
H       -0.8622512421   -0.5965273333   -0.6840495458
O       -0.7256789237    0.1144219543   -0.0370548358
O        0.7238806096    0.1283549543    0.0246063072
H        0.8704831560   -0.5105815753    0.7408260744
4    
Dihedral (-75,) Energy -151.171999295
H       -0.8430495624   -0.6343526205   -0.6339122567
O       -0.7230055645    0.1528875464   -0.0778769974
O        0.7206064797    0.1707505874    0.0612818245
H        0.8518823472   -0.5536174133    0.6948355295
4    
Dihedral (-60,) Energy -151.169620595
H       -0.8283119585   -0.6653161932   -0.5821604614
O       -0.7181957533    0.1842585595   -0.1245165119
O        0.7152966922    0.2066530316    0.1044713497
H        0.8376446197   -0.5899272979    0.6465336235
4    
Dihedral (-45,) Energy -151.166860916
H       -0.8208794449   -0.6889593482   -0.5310250527
O       -0.7099853576    0.2079908865   -0.1761805455
O        0.7066961502    0.2354211906    0.1534430154
H        0.8306021523   -0.6187846291    0.5980904829
4    
Dihedral (-30,) Energy -151.164244440
H       -0.8223224927   -0.7051055787   -0.4822655851
O       -0.6971888225    0.2239048836   -0.2311144122
O        0.6936234396    0.2566794983    0.2064706446
H        0.8323214754   -0.6398106032    0.5512372527
4    
Dihedral (-15,) Energy -151.162361842
H       -0.8323489405   -0.7138508942   -0.4367171585
O       -0.6788968742    0.2321851979   -0.2869268717
O        0.6751684027    0.2703535265    0.2611572121
H        0.8425110121   -0.6530196303    0.5068147180
4    
Dihedral (0,) Energy -151.161676170
H       -0.8495661617   -0.7154439603   -0.3944943148
O       -0.6548847461    0.2332008336   -0.3413946260
O        0.6511024153    0.2765791748    0.3152535712
H        0.8597820924   -0.6586678480    0.4649631696
4    
Dihedral (15,) Energy -151.162361844
H       -0.8731232653   -0.7100163904   -0.3557981519
O       -0.6255325188    0.2271624801   -0.3928397399
O        0.6218037934    0.2754005163    0.3670688289
H        0.8832855908   -0.6568784060    0.4258969628
4    
Dihedral (30,) Energy -151.164244440
H       -0.9033731022   -0.6974779803   -0.3214508088
O       -0.5919484643    0.2139953530   -0.4399303246
O        0.5883828029    0.2666230580    0.4152847984
H        0.9133723635   -0.6474722306    0.3904242350
4    
Dihedral (45,) Energy -151.166860914
H       -0.9410469139   -0.6776432458   -0.2926646241
O       -0.5560671465    0.1934922109   -0.4814913078
O        0.5527777186    0.2499490842    0.4587523231
H        0.9507699418   -0.6301297493    0.3597315088
4    
Dihedral (60,) Energy -151.169620600
H       -0.9856872541   -0.6504800312   -0.2702145652
O       -0.5203305885    0.1656057108   -0.5167565124
O        0.5174315591    0.2252895573    0.4967121579
H        0.9950198835   -0.6047468369    0.3345868197
4    
Dihedral (75,) Energy -151.171999296
H       -0.8477047667    0.1186624581   -0.6752321018
O       -0.7181455978   -0.6017930625   -0.0368817195
O        0.7254423193   -0.5859161084    0.1027674995
H        0.8468415452    0.2047146127    0.6536740217
4    
Dihedral (90,) Energy -151.173673555
H       -0.8663731558    0.0753630934   -0.7209469799
O       -0.7213494838   -0.5591510507   -0.0004866248
O        0.7282098457   -0.5477249333    0.0616947286
H        0.8659463940    0.1671807907    0.7040665761
4    
Dihedral (105,) Energy -151.174558807
H       -0.8865227559    0.0262548189   -0.7622905592
O       -0.7234868057   -0.5108312311    0.0293117926
O        0.7298454605   -0.5031445142    0.0265203633
H        0.8865977012    0.1233888264    0.7507861034
4    
Dihedral (120,) Energy -151.174772712
H       -0.9058412192   -0.0277098689   -0.7976399142
O       -0.7250747233   -0.4576716532    0.0526980994
O        0.7308756494   -0.4530233683   -0.0028426790
H        0.9064738932    0.0740728904    0.7921121938
4    
Dihedral (135,) Energy -151.174552527
H       -0.9227245834   -0.0855212826   -0.8258273969
O       -0.7265505862   -0.4005975330    0.0698581985
O        0.7317477836   -0.3982969681   -0.0264724819
H        0.9239609859    0.0200837837    0.8267693803
4    
Dihedral (150,) Energy -151.174164446
H       -0.9355377973   -0.1461837810   -0.8455268773
O       -0.7271702630   -0.3405111790    0.0808547421
O        0.7317274654   -0.3398769067   -0.0443266940
H        0.9374141949   -0.0377601334    0.8533266292
4    
Dihedral (165,) Energy -151.173833383
H       -0.9437586342   -0.2085461382   -0.8563529242
O       -0.7279733678   -0.2785363534    0.0858410393
O        0.7318616006   -0.2788840334   -0.0564278997
H        0.9463040014   -0.0983654750    0.8712675846
4    
Dihedral (180,) Energy -151.173706135
H       -0.9456118572   -0.2714472098   -0.8573178288
O       -0.7281805545   -0.2157457569    0.0854135430
O        0.7311910505   -0.2164170527   -0.0631759759
H        0.9490349612   -0.1607218807    0.8794080617
