4    
Dihedral (-165,) Energy -151.533557056
H       -0.9589203885   -0.3293080754   -0.8487674753
O       -0.7283981620   -0.1555101269    0.0801242915
O        0.7305773577   -0.1511426492   -0.0641885660
H        0.9631747574   -0.2283711465    0.8771596979
4    
Dihedral (-150,) Energy -151.533921930
H       -0.9493937144   -0.3911629522   -0.8319264321
O       -0.7284185699   -0.0943548065    0.0677626181
O        0.7295842050   -0.0891262963   -0.0582058056
H        0.9546616244   -0.2896879429    0.8666975727
4    
Dihedral (-135,) Energy -151.534338332
H       -0.9350059566   -0.4506854128   -0.8067081855
O       -0.7284410865   -0.0364393057    0.0494308293
O        0.7285628746   -0.0283616530   -0.0461867139
H        0.9413177201   -0.3488456206    0.8477920291
4    
Dihedral (-120,) Energy -151.534554886
H       -0.9145872299   -0.5060571361   -0.7753421299
O       -0.7283068677    0.0184409969    0.0237567433
O        0.7269903766    0.0288150413   -0.0267731693
H        0.9223372551   -0.4055308937    0.8226865197
4    
Dihedral (-105,) Energy -151.534325738
H       -0.8951583202   -0.5579601577   -0.7326440311
O       -0.7275316680    0.0681943975   -0.0049329908
O        0.7250304093    0.0824976201   -0.0048369930
H        0.9040931082   -0.4570638498    0.7867419749
4    
Dihedral (-90,) Energy -151.533387217
H       -0.8758429615   -0.5997938164   -0.6860391514
O       -0.7257988330    0.1138282250   -0.0384116373
O        0.7232250173    0.1300087527    0.0247277636
H        0.8848503195   -0.5083751591    0.7440509856
4    
Dihedral (-75,) Energy -151.531585106
H       -0.8561774751   -0.6383088506   -0.6366688830
O       -0.7239566632    0.1516646326   -0.0794502839
O        0.7196083853    0.1731202673    0.0615259410
H        0.8669593038   -0.5508080517    0.6989211824
4    
Dihedral (-60,) Energy -151.529010348
H       -0.8424581466   -0.6681495783   -0.5867539254
O       -0.7189209608    0.1834665356   -0.1266283658
O        0.7148506609    0.2084815163    0.1056464648
H        0.8529619930   -0.5881304803    0.6520637829
4    
Dihedral (-45,) Energy -151.526022746
H       -0.8377341662   -0.6901609444   -0.5372183703
O       -0.7103453309    0.2079469209   -0.1783427796
O        0.7069519289    0.2359783860    0.1550056493
H        0.8475611044   -0.6180963913    0.6048834463
4    
Dihedral (-30,) Energy -151.523205431
H       -0.8409233964   -0.7048013911   -0.4912090592
O       -0.6971638324    0.2244691423   -0.2336277209
O        0.6944216945    0.2560740007    0.2090507367
H        0.8500990921   -0.6400737858    0.5601139932
4    
Dihedral (-15,) Energy -151.521180744
H       -0.8526594582   -0.7121977400   -0.4466871206
O       -0.6784558226    0.2335221178   -0.2891111563
O        0.6770432017    0.2685365164    0.2631455218
H        0.8605056447   -0.6541929307    0.5169807116
4    
Dihedral (0,) Energy -151.520433214
H       -0.8710825299   -0.7136220442   -0.4034729585
O       -0.6555825926    0.2344445912   -0.3410799864
O        0.6539850044    0.2746946920    0.3152236126
H        0.8791136667   -0.6598492799    0.4736572861
4    
Dihedral (15,) Energy -151.521160704
H       -0.8934644459   -0.7116595209   -0.3622418192
O       -0.6286643002    0.2255892849   -0.3917718781
O        0.6243899280    0.2762661931    0.3638784508
H        0.9041723550   -0.6545279918    0.4344632046
4    
Dihedral (30,) Energy -151.523187515
H       -0.9198230469   -0.7027589204   -0.3275463811
O       -0.5959783682    0.2098567094   -0.4402673985
O        0.5893832050    0.2705010334    0.4113259759
H        0.9328517513   -0.6419308672    0.4008157465
4    
Dihedral (45,) Energy -151.526022171
H       -0.9541609548   -0.6833858442   -0.3010573220
O       -0.5583856277    0.1892228739   -0.4839241363
O        0.5522321956    0.2545201291    0.4561115987
H        0.9667479291   -0.6246892079    0.3731978093
4    
Dihedral (60,) Energy -151.529013250
H       -0.9970035707   -0.6545785517   -0.2797876883
O       -0.5209800283    0.1627866479   -0.5194607749
O        0.5166599560    0.2289484414    0.4951216382
H        1.0077571739   -0.6014885891    0.3484547832
4    
Dihedral (75,) Energy -151.531584460
H       -0.8706001357    0.1206738902   -0.6670125057
O       -0.7170040399   -0.6049481654   -0.0330318731
O        0.7279403820   -0.5842725278    0.0932461650
H        0.8660973495    0.2042148311    0.6511261431
4    
Dihedral (90,) Energy -151.533388377
H       -0.8892830468    0.0782673164   -0.7117045149
O       -0.7201650817   -0.5620537396    0.0041669390
O        0.7294591277   -0.5462130691    0.0519830318
H        0.8864225643    0.1656675159    0.6998824818
4    
Dihedral (105,) Energy -151.534325852
H       -0.9090328742    0.0272314984   -0.7542819154
O       -0.7216948632   -0.5144299856    0.0339422247
O        0.7307835039   -0.5006750783    0.0185857088
H        0.9063777968    0.1235415987    0.7460819224
4    
Dihedral (120,) Energy -151.534556125
H       -0.9275716045   -0.0238397813   -0.7902101684
O       -0.7234323814   -0.4606673455    0.0559143950
O        0.7311084748   -0.4509824072   -0.0099445906
H        0.9263290778    0.0711575500    0.7885682996
4    
Dihedral (135,) Energy -151.534339174
H       -0.9418352480   -0.0800014611   -0.8210220429
O       -0.7254777672   -0.4030272370    0.0712659244
O        0.7313482440   -0.3965925820   -0.0311044381
H        0.9423983498    0.0152892828    0.8251884927
4    
Dihedral (150,) Energy -151.533921942
H       -0.9538419999   -0.1422190112   -0.8419678657
O       -0.7262884171   -0.3435161297    0.0822571513
O        0.7316671658   -0.3373701854   -0.0477009752
H        0.9548968377   -0.0412266710    0.8517396356
4    
Dihedral (165,) Energy -151.533557095
H       -0.9618880721   -0.2056669828   -0.8530401273
O       -0.7272161177   -0.2819596917    0.0878787241
O        0.7317411998   -0.2757172617   -0.0594349032
H        0.9637965673   -0.1009880660    0.8689242544
4    
Dihedral (180,) Energy -151.533411698
H       -0.9626730364   -0.2677083007   -0.8554153383
O       -0.7276364937   -0.2185659751    0.0871573155
O        0.7308561551   -0.2135998658   -0.0649906312
H        0.9658869523   -0.1644578606    0.8775766020
