4    
Dihedral (-165,) Energy -151.533557059
H       -0.9589198721   -0.3293085508   -0.8487680071
O       -0.7283981982   -0.1555103239    0.0801238515
O        0.7305773188   -0.1511424428   -0.0641881862
H        0.9631743121   -0.2283706728    0.8771602975
4    
Dihedral (-150,) Energy -151.533921946
H       -0.9493931816   -0.3911634751   -0.8319269539
O       -0.7284186214   -0.0943550283    0.0677621177
O        0.7295842788   -0.0891260856   -0.0582053874
H        0.9546610770   -0.2896874085    0.8666981735
4    
Dihedral (-135,) Energy -151.534338337
H       -0.9350056566   -0.4506856957   -0.8067084475
O       -0.7284411534   -0.0364394535    0.0494306052
O        0.7285628704   -0.0283615011   -0.0461865287
H        0.9413175053   -0.3488453414    0.8477923203
4    
Dihedral (-120,) Energy -151.534554884
H       -0.9145871873   -0.5060572165   -0.7753421527
O       -0.7283068750    0.0184409707    0.0237567122
O        0.7269903722    0.0288150686   -0.0267731540
H        0.9223372242   -0.4055308101    0.8226865499
4    
Dihedral (-105,) Energy -151.534325759
H       -0.8951581833   -0.5579602082   -0.7326441313
O       -0.7275317148    0.0681943724   -0.0049330642
O        0.7250303823    0.0824976454   -0.0048369147
H        0.9040930575   -0.4570638014    0.7867420643
4    
Dihedral (-90,) Energy -151.533387221
H       -0.8758429270   -0.5997936356   -0.6860392840
O       -0.7257987899    0.1138282282   -0.0384115495
O        0.7232250311    0.1300087758    0.0247278693
H        0.8848502296   -0.5083753633    0.7440509212
4    
Dihedral (-75,) Energy -151.531585098
H       -0.8561780418   -0.6383080273   -0.6366689324
O       -0.7239563993    0.1516649162   -0.0794497279
O        0.7196086875    0.1731199753    0.0615259297
H        0.8669592909   -0.5508088651    0.6989206926
4    
Dihedral (-60,) Energy -151.529010333
H       -0.8424587475   -0.6681485548   -0.5867538966
O       -0.7189207451    0.1834671657   -0.1266277882
O        0.7148510267    0.2084808971    0.1056464111
H        0.8529619962   -0.5881315095    0.6520632308
4    
Dihedral (-45,) Energy -151.526022752
H       -0.8377346251   -0.6901601794   -0.5372181335
O       -0.7103452390    0.2079474477   -0.1783421198
O        0.7069522851    0.2359779004    0.1550055172
H        0.8475611047   -0.6180971855    0.6048826909
4    
Dihedral (-30,) Energy -151.523205419
H       -0.8409238090   -0.7048008375   -0.4912086968
O       -0.6971637628    0.2244696397   -0.2336273359
O        0.6944218900    0.2560735629    0.2090505213
H        0.8500992032   -0.6400743820    0.5601134680
4    
Dihedral (-15,) Energy -151.521180758
H       -0.8526603098   -0.7121970560   -0.4466863421
O       -0.6784560473    0.2335226032   -0.2891099473
O        0.6770437861    0.2685360440    0.2631448802
H        0.8605060949   -0.6541936174    0.5169793572
4    
Dihedral (0,) Energy -151.520433210
H       -0.8710833167   -0.7136210380   -0.4034724574
O       -0.6555826089    0.2344453843   -0.3410789784
O        0.6539856883    0.2746939360    0.3152233373
H        0.8791137612   -0.6598503257    0.4736560437
4    
Dihedral (15,) Energy -151.521160669
H       -0.8934653814   -0.7116581873   -0.3622413702
O       -0.6286641916    0.2255903327   -0.3917709017
O        0.6243908249    0.2762651833    0.3638782484
H        0.9041722678   -0.6545293671    0.4344619612
4    
Dihedral (30,) Energy -151.523187506
H       -0.9198237259   -0.7027579888   -0.3275458605
O       -0.5959785817    0.2098575598   -0.4402662596
O        0.5893839704    0.2705002535    0.4113258491
H        0.9328518485   -0.6419318587    0.4008142087
4    
Dihedral (45,) Energy -151.526022176
H       -0.9541614540   -0.6833851078   -0.3010568529
O       -0.5583859755    0.1892236086   -0.4839232206
O        0.5522327961    0.2545194351    0.4561115036
H        0.9667481389   -0.6246899812    0.3731965033
4    
Dihedral (60,) Energy -151.529013245
H       -0.9970038242   -0.6545782852   -0.2797870758
O       -0.5209807155    0.1627872688   -0.5194597616
O        0.5166604498    0.2289478735    0.4951216096
H        1.0077575873   -0.6014889129    0.3484531672
4    
Dihedral (75,) Energy -151.531584467
H       -0.8705965896    0.1206708845   -0.6670186643
O       -0.7170027262   -0.6049499271   -0.0330360624
O        0.7279407321   -0.5842706430    0.0932513632
H        0.8660921268    0.2042176995    0.6511313252
4    
Dihedral (90,) Energy -151.533388379
H       -0.8892824913    0.0782673735   -0.7117051444
O       -0.7201652954   -0.5620533888    0.0041667391
O        0.7294589250   -0.5462134017    0.0519836133
H        0.8864224051    0.1656674269    0.6998827536
4    
Dihedral (105,) Energy -151.534325859
H       -0.9090321648    0.0272312945   -0.7542827940
O       -0.7216950558   -0.5144297023    0.0339418680
O        0.7307833804   -0.5006753540    0.0185864894
H        0.9063773848    0.1235417643    0.7460823983
4    
Dihedral (120,) Energy -151.534556159
H       -0.9275710801   -0.0238400179   -0.7902108033
O       -0.7234325174   -0.4606671210    0.0559141697
O        0.7311083758   -0.4509826378   -0.0099440414
H        0.9263287772    0.0711577698    0.7885686288
4    
Dihedral (135,) Energy -151.534339179
H       -0.9418343473   -0.0800017766   -0.8210229939
O       -0.7254779390   -0.4030270752    0.0712654083
O        0.7313482005   -0.3965927405   -0.0311036590
H        0.9423976445    0.0152895890    0.8251892020
4    
Dihedral (150,) Energy -151.533921953
H       -0.9538410545   -0.1422194186   -0.8419689511
O       -0.7262885372   -0.3435158684    0.0822564514
O        0.7316671848   -0.3373704319   -0.0477000884
H        0.9548959637   -0.0412262802    0.8517405375
4    
Dihedral (165,) Energy -151.533557096
H       -0.9618870438   -0.2056675205   -0.8530413418
O       -0.7272162925   -0.2819597725    0.0878778041
O        0.7317412896   -0.2757171670   -0.0594339187
H        0.9637956115   -0.1009875303    0.8689254078
4    
Dihedral (180,) Energy -151.533411695
H       -0.9626723463   -0.2677087813   -0.8554161706
O       -0.7276365394   -0.2185659960    0.0871566077
O        0.7308562212   -0.2135998402   -0.0649899543
H        0.9658862251   -0.1644573728    0.8775774644
