4    
Dihedral (-165,) Energy -151.173833395
H       -0.9452873330    0.8651467705   -0.1180177388
O       -0.7295273047   -0.0712242596    0.0074361905
O        0.7295273047    0.0712242596    0.0074361905
H        0.9452873331   -0.8651467705   -0.1180177388
4    
Dihedral (-150,) Energy -151.174164235
H        0.9370180724   -0.8508730907   -0.2338655469
O        0.7291482296    0.0624968458    0.0147356555
O       -0.7291482296   -0.0624968458    0.0147356556
H       -0.9370180720    0.8508730907   -0.2338655469
4    
Dihedral (-135,) Energy -151.174552683
H        0.8275833165    0.9235906436   -0.3455210686
O       -0.0481936023    0.7288702019    0.0217709672
O        0.0481936023   -0.7288702019    0.0217709696
H       -0.8275833165   -0.9235906436   -0.3455210665
4    
Dihedral (-120,) Energy -151.174772623
H       -0.9028163992   -0.4978104849   -0.7716148502
O       -0.7279980351    0.0244106069    0.0267010994
O        0.7275763320    0.0323382720   -0.0296112982
H        0.9095091334   -0.4028354045    0.8178018174
4    
Dihedral (-105,) Energy -151.174558761
H       -0.8828773507   -0.5928976966   -0.7283099954
O       -0.7267252355    0.0291903186   -0.0000188621
O        0.7262125470    0.0398069173   -0.0035194562
H        0.8910140896   -0.5021385069    0.7844656736
4    
Dihedral (-90,) Energy -151.173673512
H        0.8669449083   -0.7135696622   -0.6357370731
O        0.7248972605   -0.0310652151    0.0400572167
O       -0.7248972605    0.0310652151    0.0400572139
H       -0.8669449071    0.7135696618   -0.6357370770
4    
Dihedral (-75,) Energy -151.171998853
H        0.8471418741   -0.6647991796   -0.7121394714
O        0.7221026172   -0.0692629811    0.0448712608
O       -0.7221026172    0.0692629811    0.0448712608
H       -0.8471418741    0.6647991796   -0.7121394714
4    
Dihedral (-60,) Energy -151.169620294
H       -0.8327693671    0.6143946855   -0.7755371810
O       -0.7170324809    0.1140355954    0.0488658929
O        0.7170324809   -0.1140355954    0.0488658929
H        0.8327693669   -0.6143946854   -0.7755371809
4    
Dihedral (-45,) Energy -151.166860684
H        0.8256452427   -0.5641712507   -0.8250217184
O        0.7086918626   -0.1641860636    0.0519838686
O       -0.7086918626    0.1641860636    0.0519838686
H       -0.8256452427    0.5641712507   -0.8250217184
4    
Dihedral (-30,) Energy -151.164244095
H       -0.8271969611    0.5158263105   -0.8600922250
O       -0.6958548306    0.2179655441    0.0541936294
O        0.6958548306   -0.2179655441    0.0541936293
H        0.8271969613   -0.5158263106   -0.8600922251
4    
Dihedral (-15,) Energy -151.162361816
H       -0.8386820686    0.4709879227   -0.8804289859
O       -0.6777442458    0.2732499429    0.0554750302
O        0.6777442458   -0.2732499429    0.0554750301
H        0.8386820688   -0.4709879227   -0.8804289860
4    
Dihedral (0,) Energy -151.161675771
H       -0.8546626851    0.4279344962   -0.8876331158
O       -0.6538250476    0.3273737228    0.0559289559
O        0.6538250476   -0.3273737228    0.0559289558
H        0.8546626854   -0.4279344964   -0.8876331159
4    
Dihedral (15,) Energy -151.162361529
H       -0.8783575050    0.3887745153   -0.8807979792
O       -0.6247268362    0.3790626800    0.0554982801
O        0.6247268362   -0.3790626801    0.0554982801
H        0.8783575049   -0.3887745152   -0.8807979792
4    
Dihedral (30,) Energy -151.164244294
H       -0.9088686896    0.3537720103   -0.8600198578
O       -0.5914534960    0.4268022396    0.0541890695
O        0.5914534961   -0.4268022396    0.0541890696
H        0.9088686894   -0.3537720101   -0.8600198577
4    
Dihedral (45,) Energy -151.166860824
H       -0.9471892704    0.3242697158   -0.8246908541
O       -0.5557136122    0.4690308354    0.0519630223
O        0.5557136123   -0.4690308353    0.0519630198
H        0.9471892680   -0.3242697165   -0.8246908514
4    
Dihedral (60,) Energy -151.169620294
H       -0.1981357136   -1.0157399677   -0.7755371930
O       -0.4511809060   -0.5688368919    0.0488658936
O        0.4511809060    0.5688368919    0.0488658936
H        0.1981357136    1.0157399677   -0.7755371930
4    
Dihedral (75,) Energy -151.171998853
H       -1.0625931927    0.1746436224   -0.7121395967
O       -0.5392773215    0.4851891245    0.0448712687
O        0.5392773215   -0.4851891245    0.0448712687
H        1.0625931926   -0.1746436223   -0.7121395967
4    
Dihedral (90,) Energy -151.173673521
H       -1.1119037551    0.1562525381   -0.6357394428
O       -0.5130136731    0.5130729858    0.0400573645
O        0.5130136731   -0.5130729858    0.0400573644
H        1.1119037552   -0.1562525381   -0.6357394428
4    
Dihedral (105,) Energy -151.174558723
H        1.1580010129   -0.1411715068   -0.5482482203
O        0.4900964580   -0.5362057444    0.0345446220
O       -0.4900964580    0.5362057444    0.0345446221
H       -1.1580010127    0.1411715068   -0.5482482203
4    
Dihedral (120,) Energy -151.174772693
H       -1.1996623216    0.1295351374   -0.4509192114
O       -0.4717548050    0.5550750951    0.0284120096
O        0.4717548050   -0.5550750951    0.0284120097
H        1.1996623215   -0.1295351374   -0.4509192114
4    
Dihedral (135,) Energy -151.174552674
H        1.2343047079   -0.1207877302   -0.3455305075
O        0.4573862623   -0.5695263911    0.0217715632
O       -0.4573862623    0.5695263911    0.0217715632
H       -1.2343047078    0.1207877301   -0.3455305074
4    
Dihedral (150,) Energy -151.174164395
H       -1.2604747273    0.1147779637   -0.2339023819
O       -0.4472509097    0.5797926885    0.0147379765
O        0.4472509097   -0.5797926885    0.0147379765
H        1.2604747271   -0.1147779636   -0.2339023819
4    
Dihedral (165,) Energy -151.173833283
H        1.2761231846   -0.1109800228   -0.1180446960
O        0.4407845456   -0.5860152685    0.0074378890
O       -0.4407845455    0.5860152685    0.0074378890
H       -1.2761231848    0.1109800229   -0.1180446960
4    
Dihedral (180,) Energy -151.173706126
H       -1.2820329964    0.1099742072   -0.0000036003
O       -0.4390294408    0.5880558116    0.0000002268
O        0.4390294408   -0.5880558116    0.0000002268
H        1.2820329965   -0.1099742072   -0.0000036003
