25   
Dihedral (-60,) Energy -502.497562630
C        0.6900811601    0.6088108060   -0.6391132714
C       -0.1849681824    1.3957835127    0.1358259574
C       -1.4093433677    0.7686895374    0.4313998549
C        1.0565613286   -0.6132333135   -0.0360959625
C        2.3421313928   -1.3427715628   -0.3576196853
C       -1.2871380240   -0.6141401418    0.7233859190
C        5.9219407536    1.0628022626    0.0988829231
C        4.9459174882    1.0505829539    1.1037978385
C       -0.0266297784   -1.2446377514    0.6354846288
C        3.7904359780    0.2810379626    0.9510781047
C        3.5909705644   -0.4909487110   -0.2059832313
C        4.5718647507   -0.4688611299   -1.2074826963
C        5.7313619401    0.3010498551   -1.0577553050
H        1.4387860632    1.1242433578   -1.2414244909
H       -0.1699863751    2.4751279191   -0.0147531528
H       -2.3037266391    1.3258048148    0.6860353323
H        2.4152630577   -2.2229548116    0.2966866360
H        2.3000057186   -1.7328023787   -1.3842594290
H       -2.1409993524   -1.1795105544    1.0834281666
H        6.8182792700    1.6629279761    0.2163672342
H        5.0852260163    1.6422048789    2.0030126759
H        0.0986966999   -2.2463625826    1.0377738363
H        3.0281297866    0.2834456610    1.7237981525
H        4.4250393853   -1.0563149885   -2.1094000763
H        6.4793690188    0.3083289333   -1.8441333207
25   
Dihedral (-45,) Energy -502.524715690
C        0.7125126663    0.6225729636   -0.7026152414
C       -0.2102756004    1.4634611805   -0.0637251521
C       -1.3618938724    0.8502845729    0.4599108874
C        1.0306018504   -0.5875665139   -0.0527167781
C        2.2976383942   -1.3544678997   -0.3753430856
C       -1.2271009765   -0.4833928867    0.8877307316
C        5.9260819564    0.9721366045    0.1073437443
C        4.9815799315    0.9121357935    1.1404784945
C        0.0039404610   -1.1473470640    0.7365202943
C        3.8122293873    0.1657764386    0.9798860943
C        3.5668740754   -0.5351042020   -0.2130633094
C        4.5167211016   -0.4662768991   -1.2418177924
C        5.6901217285    0.2810894955   -1.0846503590
H        1.4555400893    1.0641927087   -1.3637381467
H       -0.2467361472    2.5135788407   -0.3446816809
H       -2.2466927429    1.4277709555    0.7047533469
H        2.3468279211   -2.2418478917    0.2706083445
H        2.2478227353   -1.7314719136   -1.4060944828
H       -2.0510965423   -0.9870459171    1.3832130611
H        6.8333208082    1.5543863205    0.2310139663
H        5.1564688739    1.4486107074    2.0676498039
H        0.1499086158   -2.1210146809    1.1960595165
H        3.0742411860    0.1319104314    1.7753794150
H        4.3348574811   -0.9992399644   -2.1708018867
H        6.4137761481    0.3251695767   -1.8923616816
25   
Dihedral (-30,) Energy -502.541915540
C        0.7429521465    0.6272456468   -0.7476553279
C       -0.2478676474    1.4793536479   -0.2489483888
C       -1.3269196613    0.9156953206    0.4495302470
C        1.0163554272   -0.5736614760   -0.0661198736
C        2.2713038769   -1.3710028900   -0.3725724840
C       -1.1743458592   -0.3688669720    0.9882254365
C        5.9223446630    0.9159576384    0.1264567354
C        5.0051950749    0.8075512318    1.1802519654
C        0.0254581244   -1.0707326306    0.7968347567
C        3.8301008704    0.0715140903    1.0150390658
C        3.5521388369   -0.5714793313   -0.2031405981
C        4.4746157874   -0.4546964476   -1.2521527312
C        5.6534791863    0.2833539132   -1.0906553590
H        1.4845662484    1.0153031249   -1.4407458249
H       -0.3260131164    2.4915556203   -0.6352909028
H       -2.2070832991    1.5076459035    0.6774778284
H        2.2984073524   -2.2549800675    0.2786434721
H        2.2239500460   -1.7512741484   -1.4018532105
H       -1.9665485755   -0.8089119495    1.5855795037
H        6.8340632646    1.4903033963    0.2540771639
H        5.2058978043    1.2987283240    2.1270937239
H        0.1791306986   -2.0234338833    1.2958226867
H        3.1127065001    0.0017699916    1.8270452013
H        4.2673863535   -0.9433153517   -2.2000075757
H        6.3559960711    0.3646757817   -1.9139963884
25   
Dihedral (-15,) Energy -502.551419620
C        0.7692566725    0.6525575506   -0.7317933407
C       -0.3076282480    1.4553056406   -0.3475215978
C       -1.3218776123    0.9176236684    0.4569430232
C        1.0120141018   -0.5686878860   -0.0788883673
C        2.2667570689   -1.3682512127   -0.3869807649
C       -1.1396039928   -0.3401664620    1.0404858576
C        5.9226439601    0.9033779814    0.1442158087
C        5.0074622091    0.7785938869    1.1979308635
C        0.0399930281   -1.0583247821    0.8052593335
C        3.8307571153    0.0476149843    1.0222308325
C        3.5494510741   -0.5745157897   -0.2060437173
C        4.4700879422   -0.4412102390   -1.2547093562
C        5.6503954330    0.2922884048   -1.0830858840
H        1.5141920265    1.0390470135   -1.4208275560
H       -0.4271759969    2.4416581764   -0.7848104527
H       -2.2103511026    1.4999701830    0.6780555499
H        2.2886828929   -2.2580088055    0.2563703409
H        2.2220386527   -1.7393498367   -1.4195920621
H       -1.9018316951   -0.7539719869    1.6930055589
H        6.8356128405    1.4738869787    0.2798534917
H        5.2108600520    1.2531393421    2.1526514967
H        0.1992626853   -2.0129928173    1.2985537130
H        3.1145755632   -0.0342806249    1.8341471020
H        4.2602862763   -0.9135829511   -2.2101895909
H        6.3514095430    0.3865778803   -1.9063210666
25   
Dihedral (0,) Energy -502.554523070
C        0.7943943373    0.6777128737   -0.7048508376
C       -0.3588315396    1.4169333139   -0.4332942620
C       -1.3176900155    0.9228834568    0.4608490908
C        1.0099899332   -0.5666780207   -0.0887618760
C        2.2645831524   -1.3666241697   -0.3985788205
C       -1.1108262590   -0.3120780954    1.0820976831
C        5.9221536573    0.8956081324    0.1589300390
C        5.0100986409    0.7532605429    1.2131435310
C        0.0473300355   -1.0500311284    0.8082760867
C        3.8327917054    0.0253512022    1.0289482392
C        3.5481303660   -0.5767168866   -0.2085366883
C        4.4654566840   -0.4258156510   -1.2577386284
C        5.6461520293    0.3050363849   -1.0775520802
H        1.5443184939    1.0683826154   -1.3856189036
H       -0.5101329799    2.3770722491   -0.9162206643
H       -2.2131084043    1.4979669655    0.6728116002
H        2.2827130798   -2.2610306834    0.2382555047
H        2.2221511211   -1.7301111811   -1.4339537084
H       -1.8455293394   -0.7005651926    1.7801747379
H        6.8355513082    1.4637976154    0.3012956106
H        5.2163633551    1.2119088219    2.1749861311
H        0.2048676685   -2.0087402193    1.2942187646
H        3.1188492850   -0.0696629549    1.8413909967
H        4.2528456480   -0.8826548086   -2.2201081773
H        6.3446484626    0.4130933688   -1.9012237303
25   
Dihedral (15,) Energy -502.551621200
C        0.8069159065    0.7057941291   -0.6764418367
C       -0.4100767254    1.3703525144   -0.5065695733
C       -1.3084877386    0.9345662236    0.4773581380
C        1.0061257648   -0.5626899659   -0.1038776929
C        2.2587030086   -1.3599517357   -0.4265596607
C       -1.0724696036   -0.2771793609    1.1341475984
C        5.9232512566    0.8788144573    0.1780386902
C        5.0036299822    0.7303152177    1.2247832685
C        0.0591077509   -1.0387554908    0.8146154959
C        3.8236399595    0.0107277939    1.0254848883
C        3.5442126519   -0.5771982294   -0.2199830817
C        4.4688925319   -0.4199063991   -1.2617896182
C        5.6521399287    0.3028105338   -1.0663901528
H        1.5545141097    1.1028370544   -1.3564040721
H       -0.5932938767    2.3013381341   -1.0339989459
H       -2.2080004742    1.5043313817    0.6861952819
H        2.2733136953   -2.2665686370    0.1928857181
H        2.2169378528   -1.7029826863   -1.4688389437
H       -1.7720297691   -0.6377872980    1.8815114530
H        6.8386166766    1.4407368273    0.3321876692
H        5.2059805272    1.1779784759    2.1926068311
H        0.2158233709   -2.0014788983    1.2928031552
H        3.1035700202   -0.0885122156    1.8319202510
H        4.2599469798   -0.8653963087   -2.2302467487
H        6.3563067926    0.4161031845   -1.8844981086
25   
Dihedral (30,) Energy -502.542313960
C        0.8111157063    0.7331650770   -0.6477546396
C       -0.4612536071    1.3098009972   -0.5778990023
C       -1.3007596861    0.9536856213    0.4892450473
C        1.0033649956   -0.5584271130   -0.1223470908
C        2.2533480857   -1.3527817155   -0.4561400000
C       -1.0320737488   -0.2332329584    1.1832119371
C        5.9256510826    0.8587731278    0.2005086144
C        4.9978470129    0.7033908719    1.2389626509
C        0.0707524662   -1.0215628521    0.8212297658
C        3.8147873541   -0.0063417338    1.0228717322
C        3.5408344810   -0.5779186303   -0.2313573695
C        4.4734720805   -0.4133131567   -1.2649164009
C        5.6596601980    0.2997383170   -1.0527760115
H        1.5534312677    1.1394627136   -1.3292231227
H       -0.6740032607    2.2060564375   -1.1536885202
H       -2.2035355370    1.5195707153    0.6935884859
H        2.2631135402   -2.2711750653    0.1458697319
H        2.2134173301   -1.6752415893   -1.5049745782
H       -1.6918452577   -0.5625946211    1.9796054387
H        6.8433568877    1.4130894096    0.3677522359
H        5.1961231761    1.1381808807    2.2134670792
H        0.2239188559   -1.9866738329    1.2957991640
H        3.0881306624   -0.1105140184    1.8226759796
H        4.2684317049   -0.8457455003   -2.2400789361
H        6.3699845896    0.4189073153   -1.8646918754
25   
Dihedral (45,) Energy -502.525317550
C        0.8083005192    0.7569117911   -0.6158731176
C       -0.5097295779    1.2344444214   -0.6395600234
C       -1.2904552157    0.9818330373    0.5024110470
C        1.0012838649   -0.5582124350   -0.1461930001
C        2.2488838405   -1.3473383644   -0.4907511780
C       -0.9866052541   -0.1816745343    1.2317657737
C        5.9256208851    0.8393294347    0.2239911228
C        4.9877463205    0.6772262086    1.2522819174
C        0.0830783909   -1.0021102200    0.8287891236
C        3.8026580451   -0.0233394377    1.0177449993
C        3.5370941343   -0.5792729679   -0.2452404124
C        4.4796417450   -0.4073560292   -1.2685335488
C        5.6678691640    0.2965188434   -1.0381558237
H        1.5409437067    1.1771939845   -1.3016878352
H       -0.7477675879    2.0905376570   -1.2669314519
H       -2.1947274000    1.5461537583    0.7024399444
H        2.2537809448   -2.2776952858    0.0927371666
H        2.2124779961   -1.6478785813   -1.5461529650
H       -1.6013837457   -0.4769669465    2.0761367289
H        6.8448166531    1.3865618359    0.4057623939
H        5.1796675440    1.0998287787    2.2333904579
H        0.2294966535   -1.9680721729    1.3039702413
H        3.0679223708   -0.1323008415    1.8094068649
H        4.2808202079   -0.8273779267   -2.2503522398
H        6.3858360132    0.4213545959   -1.8424560614
25   
Dihedral (60,) Energy -502.498340330
C        0.7973371201    0.7788243225   -0.5714436892
C       -0.5575095420    1.1503274104   -0.6739451081
C       -1.2786264994    1.0207867834    0.5282788984
C        1.0003516098   -0.5612806738   -0.1798953808
C        2.2461544896   -1.3413530810   -0.5368505000
C       -0.9352905441   -0.1293813333    1.2822166185
C        5.9232001479    0.8190027863    0.2460952864
C        4.9680891967    0.6574484110    1.2583929613
C        0.0965440818   -0.9837354726    0.8342284054
C        3.7819264053   -0.0335631012    1.0016541228
C        3.5342855962   -0.5797728536   -0.2690935791
C        4.4932698188   -0.4084684767   -1.2772599171
C        5.6822888200    0.2856989198   -1.0234803167
H        1.5122638415    1.2264156090   -1.2624200992
H       -0.8145485933    1.9631562298   -1.3531732210
H       -2.1840450651    1.5825252933    0.7273929825
H        2.2472993319   -2.2849685688    0.0251441142
H        2.2140208201   -1.6168492217   -1.5991868484
H       -1.4996414232   -0.3960275962    2.1703139094
H        6.8430136711    1.3589183696    0.4457409942
H        5.1473029233    1.0732120395    2.2447926087
H        0.2353604569   -1.9501428880    1.3111836400
H        3.0334124370   -0.1420459164    1.7803044427
H        4.3069963553   -0.8211787937   -2.2646352643
H        6.4138151800    0.4107504594   -1.8154149717
