25   
Dihedral (-60,) Energy -502.497562680
C        0.6900861832    0.6088266717   -0.6390784419
C       -0.1849927118    1.3957589978    0.1358680769
C       -1.4093698175    0.7686383962    0.4313807202
C        1.0565626072   -0.6132397360   -0.0361011916
C        2.3421494916   -1.3427510773   -0.3576179374
C       -1.2871580824   -0.6142017436    0.7233130459
C        5.9219555306    1.0628228014    0.0988849412
C        4.9458791396    1.0506167037    1.1037512132
C       -0.0266402136   -1.2446831575    0.6354223745
C        3.7903724665    0.2810959742    0.9510989290
C        3.5909760509   -0.4909144395   -0.2059556047
C        4.5719195584   -0.4688431294   -1.2074102374
C        5.7314399884    0.3010440017   -1.0577438143
H        1.4388033431    1.1242915957   -1.2413468673
H       -0.1700193717    2.4751096536   -0.0146672125
H       -2.3037664582    1.3257339160    0.6860126850
H        2.4152845483   -2.2229418211    0.2966783690
H        2.3000445356   -1.7327708846   -1.3842628577
H       -2.1410237146   -1.1795964299    1.0833066415
H        6.8182845337    1.6629574632    0.2163964310
H        5.0851754593    1.6422735361    2.0029436193
H        0.0986849453   -2.2464227280    1.0376754635
H        3.0280501579    0.2835423431    1.7238040170
H        4.4251054688   -1.0563312270   -2.1093059653
H        6.4794630363    0.3082852886   -1.8441080185
25   
Dihedral (-45,) Energy -502.524715656
C        0.7125142231    0.6225782464   -0.7026139173
C       -0.2102753429    1.4634654822   -0.0637239684
C       -1.3618953699    0.8502879076    0.4599074746
C        1.0306010515   -0.5875630985   -0.0527177926
C        2.2976369385   -1.3544654788   -0.3753440093
C       -1.2271045263   -0.4833909523    0.8877238983
C        5.9260856482    0.9721294918    0.1073488100
C        4.9815783489    0.9121370206    1.1404791209
C        0.0039369535   -1.1473452969    0.7365149854
C        3.8122259287    0.1657811892    0.9798849119
C        3.5668738772   -0.5351041807   -0.2130623982
C        4.5167258258   -0.4662851672   -1.2418128050
C        5.6901283800    0.2810776036   -1.0846430389
H        1.4555431922    1.0641991290   -1.3637342840
H       -0.2467350431    2.5135840056   -0.3446775934
H       -2.2466946352    1.4277742392    0.7047487585
H        2.3468245553   -2.2418464417    0.2706063483
H        2.2478213221   -1.7314687032   -1.4060957373
H       -2.0511014443   -0.9870454847    1.3832024673
H        6.8333260851    1.5543763881    0.2310205094
H        5.1564647333    1.4486157178    2.0676486612
H        0.1499035146   -2.1210141477    1.1960517729
H        3.0742340086    0.1319215697    1.7753749614
H        4.3348650127   -0.9992516961   -2.1707954573
H        6.4137868244    0.3251513248   -1.8923510360
25   
Dihedral (-30,) Energy -502.541915574
C        0.7429517710    0.6272450500   -0.7476561693
C       -0.2478678125    1.4793533753   -0.2489493617
C       -1.3269194448    0.9156955436    0.4495303405
C        1.0163554374   -0.5736615057   -0.0661198182
C        2.2713039551   -1.3710028563   -0.3725724724
C       -1.1743453724   -0.3688664203    0.9882263288
C        5.9223443014    0.9159575305    0.1264567797
C        5.0051955189    0.8075501849    1.1802525802
C        0.0254586111   -1.0707321539    0.7968357687
C        3.8301013364    0.0715130362    1.0150393918
C        3.5521388513   -0.5714793153   -0.2031407246
C        4.4746152096   -0.4546955394   -1.2521532189
C        5.6534785293    0.2833548953   -1.0906558321
H        1.4845653908    1.0153020333   -1.4407473739
H       -0.3260136342    2.4915550075   -0.6352927671
H       -2.2070830333    1.5076462242    0.6774778934
H        2.2984075819   -2.2549799721    0.2786435235
H        2.2239501584   -1.7512741237   -1.4018531832
H       -1.9665478153   -0.8089110181    1.5855810954
H        6.8340628622    1.4903032730    0.2540772571
H        5.2058987120    1.2987264934    2.1270946394
H        0.1791314056   -2.0234330940    1.2958242491
H        3.1127072339    0.0017681691    1.8270457326
H        4.2673854034   -0.9433137052   -2.2000083303
H        6.3559950535    0.3646776522   -1.9139971287
25   
Dihedral (-15,) Energy -502.551419633
C        0.7692571411    0.6525573839   -0.7317932499
C       -0.3076275798    1.4553057077   -0.3475213560
C       -1.3218770943    0.9176238053    0.4569432204
C        1.0120141231   -0.5686881664   -0.0788884056
C        2.2667569691   -1.3682515464   -0.3869808407
C       -1.1396039368   -0.3401665225    1.0404859056
C        5.9226433888    0.9033783170    0.1442157664
C        5.0074618261    0.7785940153    1.1979309611
C        0.0399929861   -1.0583250035    0.8052592520
C        3.8307570018    0.0476146897    1.0222306536
C        3.5494509248   -0.5745159883   -0.2060438602
C        4.4700877410   -0.4412101089   -1.2547094638
C        5.6503950552    0.2922888286   -1.0830860299
H        1.5141926492    1.0390468138   -1.4208272418
H       -0.4271749810    2.4416584333   -0.7848099901
H       -2.2103504652    1.4999705409    0.6780558598
H        2.2886827299   -2.2580090427    0.2563703783
H        2.2220384425   -1.7393502999   -1.4195920661
H       -1.9018318168   -0.7539719607    1.6930055473
H        6.8356121366    1.4738875551    0.2798534481
H        5.2108596533    1.2531394322    2.1526516182
H        0.1992624873   -2.0129931016    1.2985535534
H        3.1145755428   -0.0342812506    1.8341469382
H        4.2602861268   -0.9135827787   -2.2101897490
H        6.3514091992    0.3865785768   -1.9063211861
25   
Dihedral (0,) Energy -502.554523068
C        0.7943943373    0.6777128737   -0.7048508376
C       -0.3588315396    1.4169333139   -0.4332942620
C       -1.3176900155    0.9228834568    0.4608490908
C        1.0099899332   -0.5666780207   -0.0887618760
C        2.2645831524   -1.3666241697   -0.3985788205
C       -1.1108262590   -0.3120780954    1.0820976831
C        5.9221536573    0.8956081324    0.1589300390
C        5.0100986409    0.7532605429    1.2131435310
C        0.0473300355   -1.0500311284    0.8082760866
C        3.8327917054    0.0253512022    1.0289482392
C        3.5481303660   -0.5767168866   -0.2085366883
C        4.4654566840   -0.4258156510   -1.2577386284
C        5.6461520293    0.3050363849   -1.0775520802
H        1.5443184939    1.0683826154   -1.3856189036
H       -0.5101329799    2.3770722491   -0.9162206643
H       -2.2131084043    1.4979669655    0.6728116001
H        2.2827130798   -2.2610306834    0.2382555047
H        2.2221511211   -1.7301111811   -1.4339537084
H       -1.8455293394   -0.7005651926    1.7801747379
H        6.8355513082    1.4637976154    0.3012956106
H        5.2163633551    1.2119088219    2.1749861311
H        0.2048676685   -2.0087402193    1.2942187646
H        3.1188492850   -0.0696629549    1.8413909967
H        4.2528456480   -0.8826548086   -2.2201081773
H        6.3446484626    0.4130933688   -1.9012237303
25   
Dihedral (15,) Energy -502.551621170
C        0.8069158021    0.7057942705   -0.6764419362
C       -0.4100768217    1.3703526297   -0.5065695827
C       -1.3084878997    0.9345660634    0.4773578994
C        1.0061256384   -0.5626899811   -0.1038781894
C        2.2587029757   -1.3599516513   -0.4265599953
C       -1.0724698828   -0.2771797071    1.1341470849
C        5.9232515689    0.8788143746    0.1780391755
C        5.0036297858    0.7303158297    1.2247834113
C        0.0591075002   -1.0387557865    0.8146147962
C        3.8236398163    0.0107283967    1.0254849579
C        3.5442125760   -0.5771981678   -0.2199826754
C        4.4688929109   -0.4199067963   -1.2617889221
C        5.6521405072    0.3028099183   -1.0663895661
H        1.5545140826    1.1028373958   -1.3564039216
H       -0.5932939203    2.3013384485   -1.0339986226
H       -2.2080006318    1.5043312057    0.6861951588
H        2.2733134606   -2.2665686877    0.1928851995
H        2.2169381563   -1.7029824125   -1.4688393834
H       -1.7720300650   -0.6377877939    1.8815108819
H        6.8386170364    1.4407367968    0.3321880517
H        5.2059801122    1.1779794694    2.1926068196
H        0.2158230964   -2.0014793482    1.2928021422
H        3.1035697168   -0.0885110812    1.8319201576
H        4.2599475713   -0.8653969764   -2.2302460047
H        6.3563076020    0.4161020649   -1.8844973906
25   
Dihedral (30,) Energy -502.542313993
C        0.8111140924    0.7331629255   -0.6477582495
C       -0.4612552542    1.3097985652   -0.5779019575
C       -1.3007590814    0.9536864443    0.4892449530
C        1.0033648657   -0.5584273836   -0.1223468078
C        2.2533477765   -1.3527823170   -0.4561394449
C       -1.0320714781   -0.2332297055    1.1832152720
C        5.9256507633    0.8587729728    0.2005077763
C        4.9978486416    0.7033880879    1.2389631129
C        0.0707543402   -1.0215603229    0.8212334270
C        3.8147890802   -0.0063446787    1.0228728662
C        3.5408341651   -0.5779191820   -0.2313568688
C        4.4734699845   -0.4133108792   -1.2649171306
C        5.6596582461    0.2997408119   -1.0527776895
H        1.5534281478    1.1394585430   -1.3292295120
H       -0.6740063496    2.2060520238   -1.1536939182
H       -2.2035346862    1.5195718990    0.6935883063
H        2.2631130917   -2.2711756331    0.1458704726
H        2.2134171449   -1.6752422020   -1.5049740833
H       -1.6918413055   -0.5625890223    1.9796110681
H        6.8433566028    1.4130894421    0.3677509867
H        5.1961262530    1.1381761436    2.2134680730
H        0.2239221078   -1.9866697085    1.2958057573
H        3.0881338649   -0.1105189448    1.8226781816
H        4.2684282289   -0.8457414690   -2.2400801783
H        6.3699811878    0.4189118561   -1.8646945601
25   
Dihedral (45,) Energy -502.525317521
C        0.8082995956    0.7569105981   -0.6158742663
C       -0.5097310427    1.2344417191   -0.6395611009
C       -1.2904561446    0.9818314263    0.5024105339
C        1.0012841914   -0.5582128280   -0.1461922173
C        2.2488845917   -1.3473384822   -0.4907499575
C       -0.9866046579   -0.1816745134    1.2317669327
C        5.9256203170    0.8393305474    0.2239899676
C        4.9877473550    0.6772260124    1.2522820764
C        0.0830796370   -1.0021096471    0.8287910713
C        3.8026591659   -0.0233400698    1.0177459138
C        3.5370945407   -0.5792723891   -0.2452398044
C        4.4796408304   -0.4073537592   -1.2685339062
C        5.6678684399    0.2965214217   -1.0381575954
H        1.5409418056    1.1771922453   -1.3016904007
H       -0.7477700528    2.0905335889   -1.2669339568
H       -2.1947287847    1.5461516957    0.7024386217
H        2.2537820557   -2.2776950586    0.0927387572
H        2.2124786659   -1.6478792214   -1.5461516123
H       -1.6013825122   -0.4769662476    2.0761385483
H        6.8448159525    1.3865632659    0.4057608642
H        5.1796699167    1.0998278848    2.2333906377
H        0.2294989885   -1.9680708292    1.3039734439
H        3.0679245421   -0.1323027301    1.8094086005
H        4.2808183779   -0.8273748617   -2.2503527699
H        6.3858344397    0.4213584758   -1.8424584886
25   
Dihedral (60,) Energy -502.498340251
C        0.7973384623    0.7788235047   -0.5714423134
C       -0.5575081759    1.1503266145   -0.6739446098
C       -1.2786262861    1.0207856139    0.5282787969
C        1.0003525702   -0.5612816613   -0.1798943234
C        2.2461555479   -1.3413542644   -0.5368488226
C       -0.9352910279   -0.1293829546    1.2822162242
C        5.9231982369    0.8190054761    0.2460942879
C        4.9680875753    0.6574505200    1.2583921122
C        0.0965440186   -0.9837368198    0.8342283377
C        3.7819258085   -0.0335626645    1.0016532486
C        3.5342864495   -0.5797728403   -0.2690945241
C        4.4932699484   -0.4084679162   -1.2772615473
C        5.6822879039    0.2857009802   -1.0234812808
H        1.5122657812    1.2264151231   -1.2624177673
H       -0.8145467149    1.9631557281   -1.3531725552
H       -2.1840449658    1.5825241978    0.7273923077
H        2.2473013559   -2.2849685404    0.0251477209
H        2.2140211783   -1.6168526680   -1.5991845390
H       -1.4996425809   -0.3960296475    2.1703129844
H        6.8430111156    1.3589221249    0.4457399531
H        5.1473007011    1.0732146675    2.2447916850
H        0.2353598965   -1.9501443814    1.3111833063
H        3.0334118248   -0.1420465183    1.7803034707
H        4.3069970690   -0.8211787863   -2.2646367514
H        6.4138144352    0.4107532501   -1.8154156746
