4    
Dihedral (-165,) Energy 0.018462253
H       -1.0045798739   -0.3254452298   -0.8466123640
O       -0.6406578786   -0.1638236866    0.0142226458
O        0.6422784416   -0.1546053057    0.0014318960
H        1.0079593109   -0.2221257779    0.8739578223
4    
Dihedral (-150,) Energy 0.018864803
H       -0.9955551677   -0.3808263778   -0.8316693888
O       -0.6409179278   -0.1075672634    0.0044823863
O        0.6422114998   -0.0978736257    0.0058654182
H        1.0002615957   -0.2787327332    0.8653215843
4    
Dihedral (-135,) Energy 0.019401489
H       -0.9815886266   -0.4344206861   -0.8095183345
O       -0.6412838769   -0.0540858578   -0.0100871811
O        0.6417200737   -0.0429688445    0.0152284641
H        0.9871524298   -0.3335246117    0.8493770514
4    
Dihedral (-120,) Energy 0.019951385
H       -0.9637985755   -0.4837580491   -0.7812177040
O       -0.6408811084   -0.0035593757   -0.0297756346
O        0.6412148206    0.0087909254    0.0295963365
H        0.9704648632   -0.3864735006    0.8263970021
4    
Dihedral (-105,) Energy 0.020456016
H       -0.9439000372   -0.5294645476   -0.7476145962
O       -0.6402836989    0.0421983340   -0.0544930334
O        0.6392352645    0.0573165921    0.0494527977
H        0.9509484716   -0.4350503786    0.7976548320
4    
Dihedral (-90,) Energy 0.020943787
H       -0.9233421572   -0.5695816947   -0.7101357553
O       -0.6379156843    0.0831534295   -0.0842744922
O        0.6362852566    0.1009438381    0.0749406811
H        0.9309725850   -0.4795155730    0.7644695664
4    
Dihedral (-75,) Energy 0.021497460
H       -0.9042067185   -0.6043975498   -0.6703800430
O       -0.6335708506    0.1177544813   -0.1187414233
O        0.6311135610    0.1392375644    0.1059978036
H        0.9126640081   -0.5185944959    0.7281236627
4    
Dihedral (-60,) Energy 0.022182825
H       -0.8888194596   -0.6325612410   -0.6298811447
O       -0.6261575903    0.1464951275   -0.1577576831
O        0.6233260170    0.1714752643    0.1420066481
H        0.8976510329   -0.5514091508    0.6906321797
4    
Dihedral (-45,) Energy 0.022981170
H       -0.8785692234   -0.6550017929   -0.5903934904
O       -0.6151661184    0.1679406289   -0.2006156089
O        0.6118648112    0.1972669093    0.1821205741
H        0.8878705306   -0.5772057452    0.6538885251
4    
Dihedral (-30,) Energy 0.023767994
H       -0.8754182506   -0.6702229984   -0.5529942132
O       -0.5998649763    0.1829433791   -0.2456262346
O        0.5966186018    0.2163772660    0.2248265472
H        0.8846646251   -0.5960976466    0.6187939007
4    
Dihedral (-15,) Energy 0.024354639
H       -0.8792605616   -0.6787239605   -0.5195876529
O       -0.5800555951    0.1910024207   -0.2911749498
O        0.5772273488    0.2287569284    0.2692610314
H        0.8890888078   -0.6080353886    0.5865015713
4    
Dihedral (0,) Energy 0.024572601
H       -0.8909796550   -0.6808682176   -0.4906221228
O       -0.5563639451    0.1921442922   -0.3358313827
O        0.5533515033    0.2343848457    0.3135127258
H        0.9009920968   -0.6126609203    0.5579407797
4    
Dihedral (15,) Energy 0.024354640
H       -0.9102709556   -0.6764852893   -0.4666113428
O       -0.5291029739    0.1866342758   -0.3779741690
O        0.5261172948    0.2326626980    0.3563081019
H        0.9202566347   -0.6108116845    0.5332774099
4    
Dihedral (30,) Energy 0.023767993
H       -0.9371680395   -0.6649782269   -0.4478407446
O       -0.4992860082    0.1750064274   -0.4166680692
O        0.4965509925    0.2243353200    0.3957399178
H        0.9469030552   -0.6013635205    0.5127688960
4    
Dihedral (45,) Energy 0.022981171
H       -0.9701273043   -0.6474075356   -0.4340625254
O       -0.4679028269    0.1563481434   -0.4507314975
O        0.4659579704    0.2088544499    0.4314903493
H        0.9800721608   -0.5847950576    0.4973036735
4    
Dihedral (60,) Energy 0.022182825
H       -1.0087302163   -0.6231768510   -0.4252712362
O       -0.4369592623    0.1310950245   -0.4798173698
O        0.4355863674    0.1863409109    0.4622606036
H        1.0181031112   -0.5612590844    0.4858280024
4    
Dihedral (75,) Energy 0.021497460
H       -0.9103245111    0.0857416456   -0.7067092794
O       -0.6282321969   -0.5725204088   -0.0852886615
O        0.6363840950   -0.5500063174    0.1397338219
H        0.9061726131    0.1717850807    0.6922641190
4    
Dihedral (90,) Energy 0.020943788
H       -0.9288121551    0.0474550017   -0.7427458921
O       -0.6332940954   -0.5340357953   -0.0544107041
O        0.6408682903   -0.5146230458    0.1049474825
H        0.9252379603    0.1372038395    0.7322091138
4    
Dihedral (105,) Energy 0.020456016
H       -0.9485381523    0.0029641399   -0.7761830933
O       -0.6364463865   -0.4904052639   -0.0287973413
O        0.6430384908   -0.4741535266    0.0753980377
H        0.9459460481    0.0965946506    0.7695823969
4    
Dihedral (120,) Energy 0.019951385
H       -0.9675487986   -0.0455104839   -0.8049104080
O       -0.6380007290   -0.4418249634   -0.0087751620
O        0.6440563046   -0.4284315549    0.0507110478
H        0.9664932229    0.0507670022    0.8029745221
4    
Dihedral (135,) Energy 0.019401495
H       -0.9839661785   -0.0979589579   -0.8278226143
O       -0.6386520763   -0.3896317398    0.0059937188
O        0.6442634474   -0.3783557101    0.0314056352
H        0.9843548075    0.0009464078    0.8314232602
4    
Dihedral (150,) Energy 0.018864798
H       -0.9972115117   -0.1530737523   -0.8439622754
O       -0.6394372115   -0.3345593481    0.0154932842
O        0.6436113673   -0.3250270168    0.0170172511
H        0.9980373559   -0.0523398828    0.8534517402
4    
Dihedral (165,) Energy 0.018462261
H       -1.0054392688   -0.2104862452   -0.8529157643
O       -0.6399645213   -0.2784044009    0.0196824503
O        0.6428457661   -0.2691739198    0.0071146665
H        1.0065580239   -0.1079354340    0.8681186475
4    
Dihedral (180,) Energy 0.018311879
H       -1.0081713882   -0.2682103133   -0.8537317610
O       -0.6404231043   -0.2208837422    0.0192703137
O        0.6424204973   -0.2121164883    0.0017255549
H        1.0101739952   -0.1647894562    0.8747358924
